 >>> text_indentation = __import__('5-text_indentation').text_indentation
    >>> text_indentation("Hello?")
    Hello?
    <BLANKLINE>

No spaces are printed at the beginning of a line.





    >>> text_indentation("   Hi there.")
    Hi there.
    <BLANKLINE>



 >>> text_indentation("          ")

Similarly, no spaces are printed at the end of each printed line.

::

    >>> text_indentation("Hello.   ")
    Hello.
    <BLANKLINE>




 >>> text_indentation("    Woah now.    This is messy.   ")
    Woah now.
    <BLANKLINE>
    This is messy.
    <BLANKLINE>





  >>> text_indentation("No ending period, what bad grammar")
    No ending period, what bad grammar

New lines within a string are printed as normal.






  >>> text_indentation("Let's print a new-line! Here goes:\nPrinted.")
    Let's print a new-line! Here goes:
    <BLANKLINE>
    <BLANKLINE>
    Printed.
    <BLANKLINE>






    >>> text_indentation("\n\n\n We just printed three new lines.")
    <BLANKLINE>
    <BLANKLINE>
    <BLANKLINE>
    We just printed three new lines.
    <BLANKLINE>

::
    >>> text_indentation("A sneaky \n new line.")
    A sneaky 
    new line.
    <BLANKLINE>

A combo example:
